/*--------------------------------*- C++ -*----------------------------------*\
| =========                 |
| \\      /  F ield         |  OpenFOAM: The Open Source CFD Toolbox
|  \\    /   O peration     |  Version:  v2412
|   \\  /    A nd           |
|    \\/     M anipulation  |
\*---------------------------------------------------------------------------*/

FoamFile
{
    version     2.0;
    format      ascii;
    class       dictionary;
    object      blockMeshDict;
}

convertToMeters 0.0254;

// Rectangle 120 x 60, rotated +10 deg about z-axis, centered near origin

vertices
(
    // z = 0 plane
    (-53.8790  -39.9631   0)   // 0
    ( 64.2979  -19.1253   0)   // 1
    ( 53.8790   39.9631   0)   // 2
    (-64.2979   19.1253   0)   // 3

    // z = 60 plane
    (-53.8790  -39.9631  60)   // 4
    ( 64.2979  -19.1253  60)   // 5
    ( 53.8790   39.9631  60)   // 6
    (-64.2979   19.1253  60)   // 7
);

blocks
(
    hex (0 1 2 3 4 5 6 7) (140 80 80) simpleGrading (5 1 3)
);

boundary
(
    inlet
    {
        type patch;
        faces ((0 3 7 4));
    }

    outlet
    {
        type patch;
        faces ((1 2 6 5));
    }

    walls
    {
        type wall;
        faces
        (
            (0 1 5 4)
            (2 3 7 6)
            (0 1 2 3)
            (4 5 6 7)
        );
    }
);

mergePatchPairs();

// ************************************************************************* //
