/*--------------------------------*- C++ -*----------------------------------*\
| OpenFOAM: volScalarField nut (LAMINAR – ALWAYS ZERO)
\*---------------------------------------------------------------------------*/

FoamFile
{
    version     2.0;
    format      ascii;
    class       volScalarField;
    object      nut;
}

dimensions      [0 2 -1 0 0 0 0];

internalField   uniform 0;

boundaryField
{
    inlet
    {
        type            zeroGradient;
    }

    outlet
    {
        type            zeroGradient;
    }

    walls
    {
        type            zeroGradient;
    }

    senPam
    {
        type            zeroGradient;
    }
}
